**
** Heading +++++++++++++++++++++++++++++++++++++++++++++++++
**
*Heading
Hash: f9fx4bcl, Date: 05/13/2025, Unit system: MM_TON_S_C
**
** Nodes +++++++++++++++++++++++++++++++++++++++++++++++++++
**
*Node,  NSET=Nall
1, 4.70000000E-001, 0.00000000E+000, 0.00000000E+000
2, 4.70000000E-001, 5.00000000E-003, 0.00000000E+000
3, 4.70000000E-001, 1.00000000E-002, 0.00000000E+000
4, 4.70000000E-001, 1.50000000E-002, 0.00000000E+000
5, 4.70000000E-001, 2.00000000E-002, 0.00000000E+000
6, 4.70000000E-001, 2.50000000E-002, 0.00000000E+000
7, 4.70000000E-001, 3.00000000E-002, 0.00000000E+000
8, 4.70000000E-001, 3.50000000E-002, 0.00000000E+000
9, 4.70000000E-001, 4.00000000E-002, 0.00000000E+000
10, 4.70000000E-001, 4.50000000E-002, 0.00000000E+000
11, 4.70000000E-001, 5.00000000E-002, 0.00000000E+000
12, 4.70000000E-001, 5.50000000E-002, 0.00000000E+000
13, 4.70000000E-001, 6.00000000E-002, 0.00000000E+000
14, 4.70000000E-001, 6.50000000E-002, 0.00000000E+000
15, 4.70000000E-001, 7.00000000E-002, 0.00000000E+000
16, 4.70000000E-001, 7.50000000E-002, 0.00000000E+000
17, 4.70000000E-001, 8.00000000E-002, 0.00000000E+000
18, 4.70000000E-001, 8.50000000E-002, 0.00000000E+000
19, 4.70000000E-001, 9.00000000E-002, 0.00000000E+000
20, 4.70000000E-001, 9.50000000E-002, 0.00000000E+000
** ... 5719 like lines cut
**
** Elements ++++++++++++++++++++++++++++++++++++++++++++++++
**
*Element, Type=C3D10, Elset=Elems
1, 821, 900, 540, 822, 3622, 4015, 4016, 3385, 3623, 4017
2, 640, 384, 733, 732, 4018, 4019, 3107, 3105, 4020, 3109
3, 317, 224, 639, 294, 1752, 4021, 4022, 1751, 1699, 4023
4, 633, 725, 314, 726, 3084, 4024, 4025, 3086, 3088, 4026
5, 718, 717, 310, 800, 3064, 4027, 4028, 3318, 3317, 4029
6, 595, 538, 958, 546, 2619, 4030, 4031, 2628, 2472, 4032
7, 384, 318, 640, 733, 1972, 4033, 4018, 4019, 4034, 3107
8, 478, 937, 793, 792, 4035, 3737, 4036, 4037, 3736, 3298
9, 641, 318, 225, 295, 4038, 1754, 4039, 4040, 1753, 1700
10, 747, 353, 786, 701, 4041, 4042, 3288, 3263, 4043, 3273
11, 695, 690, 85, 231, 3003, 4044, 4045, 4046, 4047, 1480
12, 276, 173, 172, 182, 4048, 1368, 4049, 1615, 1370, 1369
13, 815, 489, 894, 539, 4050, 4051, 3604, 4052, 2445, 4053
14, 619, 215, 620, 712, 4054, 4055, 2764, 3044, 4056, 3045
15, 276, 182, 694, 275, 1615, 4057, 4058, 1617, 1613, 4059
16, 590, 899, 898, 968, 4060, 3621, 4061, 4062, 3839, 3838
17, 397, 873, 531, 533, 4063, 4064, 2409, 2416, 4065, 2417
18, 696, 196, 192, 197, 2989, 1418, 4066, 2988, 1425, 1416
19, 799, 877, 456, 878, 3554, 4067, 4068, 3556, 3558, 4069
20, 570, 507, 917, 918, 2539, 4070, 4071, 4072, 4073, 3681
** ... 2702 like lines cut
**
** Node sets +++++++++++++++++++++++++++++++++++++++++++++++
**
*Nset, Nset=Nchtnodes
1, 2, 3, 4, 5, 6, 7, 8, 9, 10, 11, 12, 13, 14, 15, 16, 
17, 18, 19, 20, 21, 22, 23, 24, 25, 26, 27, 28, 29, 30, 31, 32, 
33, 34, 35, 36, 37, 38, 39, 40, 41, 42, 43, 44, 45, 46, 47, 48, 
49, 50, 51, 52, 53, 54, 55, 56, 57, 58, 59, 60, 61, 62, 63, 64, 
65, 66, 67, 68, 69, 70, 71, 72, 73, 74, 75, 76, 77, 78, 79, 80, 
81, 82, 83, 84, 85, 86, 87, 88, 89, 90, 91, 92, 93, 94, 95, 96, 
97, 98, 99, 100, 101, 102, 103, 104, 105, 106, 107, 108, 109, 110, 111, 112, 
113, 114, 115, 116, 117, 118, 119, 120, 121, 122, 123, 124, 125, 126, 127, 128, 
129, 130, 131, 132, 133, 134, 135, 136, 137, 138, 139, 140, 141, 142, 143, 144, 
145, 146, 147, 148, 149, 150, 151, 152, 153, 154, 155, 156, 157, 158, 159, 160, 
161, 162, 163, 164, 185, 186, 187, 188, 189, 190, 191, 192, 193, 194, 195, 196, 
197, 198, 199, 200, 201, 202, 203, 204, 205, 206, 207, 210, 211, 1009, 1010, 1011, 
1012, 1013, 1014, 1015, 1016, 1017, 1018, 1019, 1020, 1021, 1022, 1023, 1024, 1025, 1026, 1027, 
1028, 1029, 1030, 1031, 1032, 1033, 1034, 1035, 1036, 1037, 1038, 1039, 1040, 1041, 1042, 1043, 
1044, 1045, 1046, 1047, 1048, 1049, 1050, 1051, 1052, 1053, 1054, 1055, 1056, 1057, 1058, 1059, 
1060, 1061, 1062, 1063, 1064, 1065, 1066, 1067, 1068, 1069, 1070, 1071, 1072, 1073, 1074, 1075, 
1076, 1077, 1078, 1079, 1080, 1081, 1082, 1083, 1084, 1085, 1086, 1087, 1088, 1089, 1090, 1091, 
1092, 1093, 1094, 1095, 1096, 1097, 1098, 1099, 1100, 1101, 1102, 1103, 1104, 1105, 1106, 1107, 
1108, 1109, 1110, 1111, 1112, 1113, 1114, 1115, 1116, 1117, 1118, 1119, 1120, 1121, 1122, 1123, 
1124, 1125, 1126, 1127, 1128, 1129, 1130, 1131, 1132, 1133, 1134, 1135, 1136, 1137, 1138, 1139, 
** ... 16 like lines cut
*Nset, Nset=Internal-1_Sflux_interface
1, 2, 3, 4, 5, 6, 7, 8, 9, 10, 11, 12, 13, 14, 15, 16, 
17, 18, 19, 20, 21, 22, 23, 24, 25, 26, 27, 28, 29, 30, 31, 32, 
33, 34, 35, 36, 37, 38, 39, 40, 41, 42, 43, 44, 45, 46, 47, 48, 
49, 50, 51, 52, 53, 54, 55, 56, 57, 58, 59, 60, 61, 62, 63, 64, 
65, 66, 67, 68, 69, 70, 71, 72, 73, 74, 75, 76, 77, 78, 79, 80, 
81, 82, 83, 84, 85, 86, 87, 88, 89, 90, 91, 92, 93, 94, 95, 96, 
97, 98, 99, 100, 101, 102, 103, 104, 105, 106, 107, 108, 109, 110, 111, 112, 
113, 114, 115, 116, 117, 118, 119, 120, 121, 122, 123, 124, 125, 126, 127, 128, 
129, 130, 131, 132, 133, 134, 135, 136, 137, 138, 139, 140, 141, 142, 143, 144, 
145, 146, 147, 148, 149, 150, 151, 152, 153, 154, 155, 156, 157, 158, 159, 160, 
161, 162, 163, 164, 185, 186, 187, 188, 189, 190, 191, 192, 193, 194, 195, 196, 
197, 198, 199, 200, 201, 202, 203, 204, 205, 206, 207, 210, 211, 1009, 1010, 1011, 
1012, 1013, 1014, 1015, 1016, 1017, 1018, 1019, 1020, 1021, 1022, 1023, 1024, 1025, 1026, 1027, 
1028, 1029, 1030, 1031, 1032, 1033, 1034, 1035, 1036, 1037, 1038, 1039, 1040, 1041, 1042, 1043, 
1044, 1045, 1046, 1047, 1048, 1049, 1050, 1051, 1052, 1053, 1054, 1055, 1056, 1057, 1058, 1059, 
1060, 1061, 1062, 1063, 1064, 1065, 1066, 1067, 1068, 1069, 1070, 1071, 1072, 1073, 1074, 1075, 
1076, 1077, 1078, 1079, 1080, 1081, 1082, 1083, 1084, 1085, 1086, 1087, 1088, 1089, 1090, 1091, 
1092, 1093, 1094, 1095, 1096, 1097, 1098, 1099, 1100, 1101, 1102, 1103, 1104, 1105, 1106, 1107, 
1108, 1109, 1110, 1111, 1112, 1113, 1114, 1115, 1116, 1117, 1118, 1119, 1120, 1121, 1122, 1123, 
1124, 1125, 1126, 1127, 1128, 1129, 1130, 1131, 1132, 1133, 1134, 1135, 1136, 1137, 1138, 1139, 
** ... 16 like lines cut
**
** Element sets ++++++++++++++++++++++++++++++++++++++++++++
**
*Elset, Elset=Echtelems
18, 47, 82, 83, 93, 94, 150, 157, 158, 173, 179, 180, 206, 223, 229, 286, 
295, 323, 341, 362, 364, 379, 392, 430, 476, 481, 482, 487, 529, 530, 546, 549, 
559, 570, 612, 636, 659, 668, 672, 676, 688, 707, 727, 752, 761, 767, 825, 828, 
836, 849, 855, 880, 909, 911, 922, 936, 940, 955, 961, 978, 983, 1012, 1015, 1027, 
1036, 1044, 1051, 1064, 1070, 1090, 1092, 1094, 1100, 1111, 1132, 1153, 1157, 1167, 1184, 1187, 
1193, 1195, 1222, 1226, 1242, 1264, 1267, 1271, 1289, 1318, 1328, 1347, 1352, 1381, 1404, 1407, 
1413, 1430, 1431, 1457, 1459, 1462, 1464, 1469, 1475, 1480, 1498, 1517, 1534, 1535, 1542, 1549, 
1550, 1551, 1569, 1596, 1601, 1604, 1606, 1612, 1629, 1657, 1663, 1701, 1718, 1724, 1771, 1818, 
1841, 1855, 1867, 1883, 1884, 1891, 1897, 1906, 1910, 1934, 1967, 1968, 1979, 1982, 2005, 2092, 
2178, 2271, 2285, 2290, 2291, 2293, 2304, 2305, 2308, 2309, 2318, 2328, 2339, 2341, 2343, 2347, 
2350, 2371, 2382, 2383, 2391, 2393, 2397, 2399, 2400, 2405, 2406, 2409, 2438, 2441, 2461, 2463, 
2464, 2471, 2484, 2505, 2509, 2538, 2550, 2551, 2573, 2590, 2605, 2624, 2631, 2639, 2661
*Elset, Elset=Internal-1_Sflux_interface_S3
18, 158, 173, 206, 223, 323, 392, 487, 546, 570, 676, 688, 1015, 1027, 1094, 1132, 
1187, 1226, 1242, 1517, 1534, 1535, 1549, 1569, 1629, 1855, 1906, 1968, 2290, 2293, 2304, 2309, 
2339, 2343, 2371, 2505
*Elset, Elset=Internal-1_Sflux_interface_S2
47, 157, 179, 180, 430, 482, 672, 761, 836, 880, 936, 1012, 1167, 1195, 1289, 1407, 
1480, 1551, 1596, 1663, 1718, 1867, 1910, 1967, 2271, 2291, 2382, 2393, 2399, 2400, 2405, 2409, 
2461, 2551, 2639
*Elset, Elset=Internal-1_Sflux_interface_S4
82, 83, 93, 94, 150, 229, 286, 341, 362, 379, 529, 530, 636, 659, 752, 767, 
825, 828, 849, 909, 922, 955, 983, 1036, 1051, 1090, 1092, 1132, 1157, 1193, 1222, 1264, 
1267, 1347, 1352, 1457, 1459, 1464, 1475, 1480, 1542, 1601, 1657, 1724, 1818, 1884, 1897, 1934, 
2092, 2308, 2318, 2341, 2383, 2397, 2406, 2438, 2441, 2464, 2484, 2538, 2550, 2573, 2605, 2624, 
2631, 2661
*Elset, Elset=Internal-1_Sflux_interface_S1
295, 364, 476, 481, 549, 559, 612, 668, 707, 727, 855, 911, 940, 961, 978, 1044, 
1064, 1070, 1100, 1111, 1153, 1184, 1271, 1318, 1328, 1381, 1404, 1413, 1430, 1431, 1462, 1469, 
1498, 1550, 1604, 1606, 1612, 1701, 1771, 1841, 1883, 1891, 1979, 1982, 2005, 2178, 2285, 2305, 
2328, 2347, 2350, 2391, 2463, 2471, 2509, 2590
**
** Surfaces ++++++++++++++++++++++++++++++++++++++++++++++++
**
*Surface, Name=Sflux_interface, Type=Element
Internal-1_Sflux_interface_S3, S3
Internal-1_Sflux_interface_S2, S2
Internal-1_Sflux_interface_S4, S4
Internal-1_Sflux_interface_S1, S1
**
** Physical constants ++++++++++++++++++++++++++++++++++++++
**
**
** Coordinate systems ++++++++++++++++++++++++++++++++++++++
**
**
** Materials +++++++++++++++++++++++++++++++++++++++++++++++
**
*MATERIAL, NAME=S185
*ELASTIC
210000e6, 0.280
*CONDUCTIVITY
0.014
*EXPANSION
1.100e-05
*SPECIFIC HEAT
44e7

** conductivity / (density * Specific Heat) = 1
*DENSITY
7.8e-9
**
** Sections ++++++++++++++++++++++++++++++++++++++++++++++++
**
*SOLID SECTION, ELSET=Elems, MATERIAL=S185
**
** Pre-tension sections ++++++++++++++++++++++++++++++++++++
**
**
** Constraints +++++++++++++++++++++++++++++++++++++++++++++
**
**
** Surface interactions ++++++++++++++++++++++++++++++++++++
**
**
** Contact pairs +++++++++++++++++++++++++++++++++++++++++++
**
**
** Amplitudes ++++++++++++++++++++++++++++++++++++++++++++++
**
**
** Initial conditions ++++++++++++++++++++++++++++++++++++++
**
*INITIAL CONDITIONS,TYPE=TEMPERATURE
Nall, 500.0
**
** Steps +++++++++++++++++++++++++++++++++++++++++++++++++++
*STEP, INC=2000, nlgeom=NO
*HEAT TRANSFER, DIRECT
0.01,10.0 

*BOUNDARY
NCHTNODES,11,11,500
*NODE FILE
NT
*End Step

**
