**
** Heading +++++++++++++++++++++++++++++++++++++++++++++++++
**
*Heading
Hash: YwTYV8g8, Date: 04/19/2025, Unit system: MM_TON_S_C
**
** Nodes +++++++++++++++++++++++++++++++++++++++++++++++++++
**
*Node
1, 4.70000000E-001, 2.00000000E-001, 0.00000000E+000
2, 4.70000000E-001, 1.97984200E-001, 0.00000000E+000
3, 4.70000000E-001, 1.95050423E-001, 0.00000000E+000
4, 4.70000000E-001, 1.91072550E-001, 0.00000000E+000
5, 4.70000000E-001, 1.85248635E-001, 0.00000000E+000
6, 4.70000000E-001, 1.77112580E-001, 0.00000000E+000
7, 4.70000000E-001, 1.67585921E-001, 0.00000000E+000
8, 4.70000000E-001, 1.57963403E-001, 0.00000000E+000
9, 4.70000000E-001, 1.48340885E-001, 0.00000000E+000
10, 4.70000000E-001, 1.38718366E-001, 0.00000000E+000
11, 4.70000000E-001, 1.29095848E-001, 0.00000000E+000
12, 4.70000000E-001, 1.19473329E-001, 0.00000000E+000
13, 4.70000000E-001, 1.09850811E-001, 0.00000000E+000
14, 4.70000000E-001, 1.00228292E-001, 0.00000000E+000
15, 4.70000000E-001, 9.06057741E-002, 0.00000000E+000
16, 4.70000000E-001, 8.09832557E-002, 0.00000000E+000
17, 4.70000000E-001, 7.13607373E-002, 0.00000000E+000
18, 4.70000000E-001, 6.17382189E-002, 0.00000000E+000
19, 4.70000000E-001, 5.21157005E-002, 0.00000000E+000
20, 4.70000000E-001, 4.24931820E-002, 0.00000000E+000
** ... 1982 like lines cut
**
** Elements ++++++++++++++++++++++++++++++++++++++++++++++++
**
*Element, Type=C3D10, Elset=Solid_part-1
1, 322, 370, 251, 366, 1463, 1475, 1476, 1420, 1473, 1477
2, 91, 293, 292, 173, 1173, 1175, 1171, 1478, 1479, 1480
3, 237, 263, 184, 318, 1481, 1482, 943, 1483, 1311, 1484
4, 276, 203, 148, 202, 1485, 843, 1486, 1487, 845, 841
5, 303, 302, 100, 164, 1207, 1202, 1206, 1488, 1489, 1490
6, 273, 13, 151, 40, 1491, 680, 1492, 1113, 430, 1493
7, 259, 333, 367, 256, 1494, 1466, 1495, 1062, 1496, 1497
8, 242, 256, 259, 367, 1030, 1062, 1061, 1498, 1497, 1495
9, 356, 315, 355, 161, 1393, 1398, 1378, 1499, 1500, 1501
10, 264, 159, 22, 32, 1502, 705, 1503, 1088, 1504, 453
11, 251, 322, 210, 370, 1476, 1505, 1011, 1475, 1463, 1506
12, 259, 234, 242, 367, 1060, 977, 1061, 1495, 1507, 1498
13, 273, 150, 151, 13, 1508, 682, 1492, 1491, 678, 680
14, 243, 350, 353, 303, 1509, 1407, 1510, 1511, 1360, 1408
15, 323, 322, 209, 366, 1276, 1512, 1513, 1421, 1420, 1514
16, 248, 343, 325, 249, 1515, 1425, 1516, 1006, 1517, 1518
17, 199, 30, 23, 24, 1519, 398, 711, 833, 392, 397
18, 362, 315, 215, 355, 1402, 1520, 1521, 1401, 1398, 1522
19, 122, 27, 28, 103, 573, 375, 1081, 574, 570, 1523
20, 276, 43, 44, 10, 1122, 461, 1123, 1524, 421, 417
** ... 875 like lines cut
**
** Node sets +++++++++++++++++++++++++++++++++++++++++++++++
**
*Nset, Nset=Internal_Selection-1_Temperature-1
27, 28, 29, 30, 31, 32, 33, 34, 35, 36, 37, 38, 39, 40, 41, 42, 
43, 44, 45, 46, 47, 48, 49, 50, 51, 52, 78, 79, 80, 81, 82, 83, 
84, 85, 86, 87, 88, 89, 90, 91, 92, 93, 94, 95, 96, 97, 98, 99, 
100, 101, 102, 113, 114, 115, 116, 117, 118, 119, 120, 121, 122, 132, 133, 134, 
135, 136, 137, 138, 139, 140, 262, 263, 264, 265, 266, 267, 268, 269, 270, 271, 
272, 273, 274, 275, 276, 277, 278, 279, 280, 281, 282, 283, 284, 285, 286, 287, 
288, 289, 290, 291, 292, 293, 294, 295, 296, 297, 298, 299, 300, 301, 302, 303, 
304, 305, 306, 307, 308, 309, 310, 311, 312, 313, 314, 315, 316, 317, 318, 319, 
320, 321, 322, 323, 324, 325, 326, 327, 328, 329, 330, 331, 332, 333, 334, 335, 
336, 337, 338, 339, 340, 341, 342, 343, 344, 345, 346, 347, 348, 349, 350, 351, 
352, 353, 354, 355, 356, 357, 358, 359, 360, 361, 362, 363, 364, 365, 366, 367, 
368, 369, 370, 375, 382, 384, 390, 391, 393, 402, 404, 455, 456, 457, 458, 459, 
460, 461, 462, 463, 464, 465, 466, 467, 468, 469, 470, 471, 479, 480, 482, 488, 
495, 496, 503, 504, 507, 554, 555, 556, 557, 558, 559, 560, 561, 562, 563, 564, 
565, 566, 567, 568, 571, 573, 582, 583, 585, 591, 594, 599, 606, 607, 611, 612, 
618, 622, 629, 630, 635, 642, 643, 646, 650, 1081, 1082, 1083, 1084, 1085, 1086, 1087, 
1088, 1089, 1090, 1091, 1092, 1093, 1094, 1095, 1096, 1097, 1098, 1099, 1100, 1101, 1102, 1103, 
1104, 1105, 1106, 1107, 1108, 1109, 1110, 1111, 1112, 1113, 1114, 1115, 1116, 1117, 1118, 1119, 
1120, 1121, 1122, 1123, 1124, 1125, 1126, 1127, 1128, 1129, 1130, 1131, 1132, 1133, 1134, 1135, 
1136, 1137, 1138, 1139, 1140, 1141, 1142, 1143, 1144, 1145, 1146, 1147, 1148, 1149, 1150, 1151, 
** ... 21 like lines cut
*Nset, Nset=sur1_nodes
27, 28, 29, 30, 31, 32, 33, 34, 35, 36, 37, 38, 39, 40, 41, 42, 
43, 44, 45, 46, 47, 48, 49, 50, 51, 52, 375, 382, 384, 390, 391, 393, 
402, 404, 455, 456, 457, 458, 459, 460, 461, 462, 463, 464, 465, 466, 467, 468, 
469, 470, 471
*Nset, Nset=sur2_nodes
78, 79, 80, 81, 82, 83, 84, 85, 86, 87, 88, 89, 90, 91, 92, 93, 
94, 95, 96, 97, 98, 99, 100, 101, 102, 479, 480, 482, 488, 495, 496, 503, 
504, 507, 554, 555, 556, 557, 558, 559, 560, 561, 562, 563, 564, 565, 566, 567, 
568
*Nset, Nset=sur4_nodes
52, 79, 132, 133, 134, 135, 136, 137, 138, 139, 140, 612, 618, 622, 629, 630, 
635, 642, 643, 646, 650
**
** Element sets ++++++++++++++++++++++++++++++++++++++++++++
**
*Elset, Elset=sur1_elems
19, 20, 71, 107, 175, 232, 246, 259, 334, 376, 396, 412, 421, 438, 514, 527, 
577, 652, 675, 678, 685, 768, 827, 852, 865, 870, 871
*Elset, Elset=sur4_elems
92, 186, 209, 234, 367, 373, 383, 479, 506, 550, 627, 698
*Elset, Elset=sur2_elems
21, 27, 51, 54, 70, 114, 119, 154, 172, 178, 356, 383, 401, 424, 430, 474, 
484, 539, 560, 617, 639, 693, 709, 783, 857, 869
**
** Surfaces ++++++++++++++++++++++++++++++++++++++++++++++++
*SURFACE, NAME=SolidInterface1, TYPE=ELEMENT, ELSET=sur1_elems, S1
*SURFACE, NAME=SolidInterface2, TYPE=ELEMENT, ELSET=sur2_elems, S2
*SURFACE, NAME=SolidInterface4, TYPE=ELEMENT, ELSET=sur4_elems, S4

**
**
** Physical constants ++++++++++++++++++++++++++++++++++++++
**
**
** Coordinate systems ++++++++++++++++++++++++++++++++++++++
**
**
** Materials +++++++++++++++++++++++++++++++++++++++++++++++
**
*MATERIAL, NAME=S185
*ELASTIC
210000, 0.300
*CONDUCTIVITY
100.000
*EXPANSION
1.200e-05
*SPECIFIC HEAT
100.0

** conductivity / (density * Specific Heat) = 1
*DENSITY
1.0

**INITIAL CONDITIONS
*INITIAL CONDITIONS,TYPE=TEMPERATURE
sur1_nodes,320
sur2_nodes,320
sur4_nodes,320



** Sections ++++++++++++++++++++++++++++++++++++++++++++++++
**
*Solid Section, elset=Solid_part-1, material=S185

** Pre-tension sections ++++++++++++++++++++++++++++++++++++
**
**
** Constraints +++++++++++++++++++++++++++++++++++++++++++++
**
**
** Surface interactions ++++++++++++++++++++++++++++++++++++
**
**
** Contact pairs +++++++++++++++++++++++++++++++++++++++++++
**
**
** Amplitudes ++++++++++++++++++++++++++++++++++++++++++++++
**
**
** Initial conditions ++++++++++++++++++++++++++++++++++++++
**
**
** Steps +++++++++++++++++++++++++++++++++++++++++++++++++++
**
*Step, name=HeatTransfer, nlgeom=NO
*Heat Transfer, steady state=NO
0.01,1,0

*BOUNDARY
sur1_nodes,11,11,320
sur2_nodes,11,11,320
sur4_nodes,11,11,320


*Output, field, frequency=1
*Node Output
NT
*End Step

