SUMMARY OF JOB INFORMATION
  STEP      INC     ATT  ITRS     TOT TIME     STEP TIME      INC TIME
     1          1     1     1  0.100000E-01  0.100000E-01  0.100000E-01
     1          2     1     1  0.200000E-01  0.200000E-01  0.100000E-01
     1          3     1     1  0.350000E-01  0.350000E-01  0.150000E-01
     1          4     1     1  0.575000E-01  0.575000E-01  0.225000E-01
     1          5     1     1  0.912500E-01  0.912500E-01  0.337500E-01
     1          6     1     1  0.141875E+00  0.141875E+00  0.506250E-01
     1          7     1     1  0.217813E+00  0.217813E+00  0.759375E-01
     1          8     1     1  0.331719E+00  0.331719E+00  0.113906E+00
     1          9     1     1  0.502578E+00  0.502578E+00  0.170859E+00
     1         10     1     1  0.758867E+00  0.758867E+00  0.256289E+00
     1         11     1     1  0.100000E+01  0.100000E+01  0.241133E+00
